tdcosim/app/TDDERComparisonApp/data/transmission/118bus/case118.raw
@!IC, SBASE,REV,XFRRAT,NXFRAT,BASFRQ
0,   100.00, 32,	 0,	 1, 60.00	 / PSS(R)E-35.0	THU, FEB 21 2019   9:14


	 1,'1		   ',138.0000,2,1,1,1,   0.95500,  10.97274,1.06000,0.94000,1.06000,0.94000
	 2,'2		   ',138.0000,1,1,1,1,   0.97139,  11.51255,1.06000,0.94000,1.06000,0.94000
	 3,'3		   ',138.0000,1,1,1,1,   0.96769,  11.85619,1.06000,0.94000,1.06000,0.94000
	 4,'4		   ',138.0000,2,1,1,1,   0.99800,  15.57409,1.06000,0.94000,1.06000,0.94000
	 5,'5		   ',138.0000,1,1,1,1,   1.00198,  16.01918,1.06000,0.94000,1.06000,0.94000
	 6,'6		   ',138.0000,2,1,1,1,   0.99000,  13.29187,1.06000,0.94000,1.06000,0.94000
	 7,'7		   ',138.0000,1,1,1,1,   0.98933,  12.84734,1.06000,0.94000,1.06000,0.94000
	 8,'8		   ',345.0000,2,1,1,1,   1.01500,  21.04058,1.06000,0.94000,1.06000,0.94000
	 9,'9		   ',345.0000,1,1,1,1,   1.04292,  28.29469,1.06000,0.94000,1.06000,0.94000
	10,'10		  ',345.0000,2,1,1,1,   1.05000,  35.87560,1.06000,0.94000,1.06000,0.94000
	11,'11		  ',138.0000,1,1,1,1,   0.98509,  13.00580,1.06000,0.94000,1.06000,0.94000
	12,'12		  ',138.0000,2,1,1,1,   0.99000,  12.48891,1.06000,0.94000,1.06000,0.94000
	13,'13		  ',138.0000,1,1,1,1,   0.96830,  11.62975,1.06000,0.94000,1.06000,0.94000
	14,'14		  ',138.0000,1,1,1,1,   0.98359,  11.77146,1.06000,0.94000,1.06000,0.94000
	15,'15		  ',138.0000,2,1,1,1,   0.97000,  11.47415,1.06000,0.94000,1.06000,0.94000
	16,'16		  ',138.0000,1,1,1,1,   0.98390,  12.18734,1.06000,0.94000,1.06000,0.94000
	17,'17		  ',138.0000,1,1,1,1,   0.99509,  13.99522,1.06000,0.94000,1.06000,0.94000
	18,'18		  ',138.0000,2,1,1,1,   0.97300,  11.78079,1.06000,0.94000,1.06000,0.94000
	19,'19		  ',138.0000,2,1,1,1,   0.96200,  11.31465,1.06000,0.94000,1.06000,0.94000
	20,'20		  ',138.0000,1,1,1,1,   0.95693,  12.19100,1.06000,0.94000,1.06000,0.94000
	21,'21		  ',138.0000,1,1,1,1,   0.95772,  13.77799,1.06000,0.94000,1.06000,0.94000
	22,'22		  ',138.0000,1,1,1,1,   0.96902,  16.33164,1.06000,0.94000,1.06000,0.94000
	23,'23		  ',138.0000,1,1,1,1,   0.99947,  21.24870,1.06000,0.94000,1.06000,0.94000
	24,'24		  ',138.0000,2,1,1,1,   0.99200,  21.11387,1.06000,0.94000,1.06000,0.94000
	25,'25		  ',138.0000,2,1,1,1,   1.05000,  28.17984,1.06000,0.94000,1.06000,0.94000
	26,'26		  ',345.0000,2,1,1,1,   1.01500,  29.96020,1.06000,0.94000,1.06000,0.94000
	27,'27		  ',138.0000,2,1,1,1,   0.96800,  15.60444,1.06000,0.94000,1.06000,0.94000
	28,'28		  ',138.0000,1,1,1,1,   0.96157,  13.87887,1.06000,0.94000,1.06000,0.94000
	29,'29		  ',138.0000,1,1,1,1,   0.96322,  12.88542,1.06000,0.94000,1.06000,0.94000
	30,'30		  ',345.0000,1,1,1,1,   0.98533,  19.03375,1.06000,0.94000,1.06000,0.94000
	31,'31		  ',138.0000,2,1,1,1,   0.96700,  13.00190,1.06000,0.94000,1.06000,0.94000
	32,'32		  ',138.0000,2,1,1,1,   0.96300,  15.06064,1.06000,0.94000,1.06000,0.94000
	33,'33		  ',138.0000,1,1,1,1,   0.97093,  10.85377,1.06000,0.94000,1.06000,0.94000
	34,'34		  ',138.0000,2,1,1,1,   0.98400,  11.51142,1.06000,0.94000,1.06000,0.94000
	35,'35		  ',138.0000,1,1,1,1,   0.98045,  11.05505,1.06000,0.94000,1.06000,0.94000
	36,'36		  ',138.0000,2,1,1,1,   0.98000,  11.05551,1.06000,0.94000,1.06000,0.94000
	37,'37		  ',138.0000,1,1,1,1,   0.99066,  11.96668,1.06000,0.94000,1.06000,0.94000
	38,'38		  ',345.0000,1,1,1,1,   0.96129,  17.10759,1.06000,0.94000,1.06000,0.94000
	39,'39		  ',138.0000,1,1,1,1,   0.96996,   8.57658,1.06000,0.94000,1.06000,0.94000
	40,'40		  ',138.0000,2,1,1,1,   0.97000,   7.49551,1.06000,0.94000,1.06000,0.94000
	41,'41		  ',138.0000,1,1,1,1,   0.96683,   7.05155,1.06000,0.94000,1.06000,0.94000
	42,'42		  ',138.0000,2,1,1,1,   0.98500,   8.65289,1.06000,0.94000,1.06000,0.94000
	43,'43		  ',138.0000,1,1,1,1,   0.97712,  11.46036,1.06000,0.94000,1.06000,0.94000
	44,'44		  ',138.0000,1,1,1,1,   0.98444,  13.94328,1.06000,0.94000,1.06000,0.94000
	45,'45		  ',138.0000,1,1,1,1,   0.98638,  15.77258,1.06000,0.94000,1.06000,0.94000
	46,'46		  ',138.0000,2,1,1,1,   1.00500,  18.57573,1.06000,0.94000,1.06000,0.94000
	47,'47		  ',138.0000,1,1,1,1,   1.01705,  20.79913,1.06000,0.94000,1.06000,0.94000
	48,'48		  ',138.0000,1,1,1,1,   1.02063,  20.01850,1.06000,0.94000,1.06000,0.94000
	49,'49		  ',138.0000,2,1,1,1,   1.02500,  21.02161,1.06000,0.94000,1.06000,0.94000
	50,'50		  ',138.0000,1,1,1,1,   1.00108,  18.98285,1.06000,0.94000,1.06000,0.94000
	51,'51		  ',138.0000,1,1,1,1,   0.96688,  16.36418,1.06000,0.94000,1.06000,0.94000
	52,'52		  ',138.0000,1,1,1,1,   0.95682,  15.41085,1.06000,0.94000,1.06000,0.94000
	53,'53		  ',138.0000,1,1,1,1,   0.94598,  14.43615,1.06000,0.94000,1.06000,0.94000
	54,'54		  ',138.0000,2,1,1,1,   0.95500,  15.34805,1.06000,0.94000,1.06000,0.94000
	55,'55		  ',138.0000,2,1,1,1,   0.95200,  15.05822,1.06000,0.94000,1.06000,0.94000
	56,'56		  ',138.0000,2,1,1,1,   0.95400,  15.24487,1.06000,0.94000,1.06000,0.94000
	57,'57		  ',138.0000,1,1,1,1,   0.97058,  16.44923,1.06000,0.94000,1.06000,0.94000
	58,'58		  ',138.0000,1,1,1,1,   0.95904,  15.59248,1.06000,0.94000,1.06000,0.94000
	59,'59		  ',138.0000,2,1,1,1,   0.98500,  19.44847,1.06000,0.94000,1.06000,0.94000
	60,'60		  ',138.0000,1,1,1,1,   0.99316,  23.23012,1.06000,0.94000,1.06000,0.94000
	61,'61		  ',138.0000,2,1,1,1,   0.99500,  24.12149,1.06000,0.94000,1.06000,0.94000
	62,'62		  ',138.0000,2,1,1,1,   0.99800,  23.50483,1.06000,0.94000,1.06000,0.94000
	63,'63		  ',345.0000,1,1,1,1,   0.96874,  22.82741,1.06000,0.94000,1.06000,0.94000
	64,'64		  ',345.0000,1,1,1,1,   0.98374,  24.59336,1.06000,0.94000,1.06000,0.94000
	65,'65		  ',345.0000,2,1,1,1,   1.00500,  27.71910,1.06000,0.94000,1.06000,0.94000
	66,'66		  ',138.0000,2,1,1,1,   1.05000,  27.55868,1.06000,0.94000,1.06000,0.94000
	67,'67		  ',138.0000,1,1,1,1,   1.01968,  24.91897,1.06000,0.94000,1.06000,0.94000
	68,'68		  ',345.0000,1,1,1,1,   1.00325,  27.59783,1.06000,0.94000,1.06000,0.94000
	69,'69		  ',138.0000,3,1,1,1,   1.03500,  30.00000,1.06000,0.94000,1.06000,0.94000
	70,'70		  ',138.0000,2,1,1,1,   0.98400,  22.61792,1.06000,0.94000,1.06000,0.94000
	71,'71		  ',138.0000,1,1,1,1,   0.98684,  22.20690,1.06000,0.94000,1.06000,0.94000
	72,'72		  ',138.0000,2,1,1,1,   0.98000,  21.10856,1.06000,0.94000,1.06000,0.94000
	73,'73		  ',138.0000,2,1,1,1,   0.99100,  21.99541,1.06000,0.94000,1.06000,0.94000
	74,'74		  ',138.0000,2,1,1,1,   0.95800,  21.66856,1.06000,0.94000,1.06000,0.94000
	75,'75		  ',138.0000,1,1,1,1,   0.96733,  22.93021,1.06000,0.94000,1.06000,0.94000
	76,'76		  ',138.0000,2,1,1,1,   0.94300,  21.79879,1.06000,0.94000,1.06000,0.94000
	77,'77		  ',138.0000,2,1,1,1,   1.00600,  26.75064,1.06000,0.94000,1.06000,0.94000
	78,'78		  ',138.0000,1,1,1,1,   1.00342,  26.44661,1.06000,0.94000,1.06000,0.94000
	79,'79		  ',138.0000,1,1,1,1,   1.00922,  26.74544,1.06000,0.94000,1.06000,0.94000
	80,'80		  ',138.0000,2,1,1,1,   1.04000,  28.99007,1.06000,0.94000,1.06000,0.94000
	81,'81		  ',345.0000,1,1,1,1,   0.99681,  28.14489,1.06000,0.94000,1.06000,0.94000
	82,'82		  ',138.0000,1,1,1,1,   0.98855,  27.27174,1.06000,0.94000,1.06000,0.94000
	83,'83		  ',138.0000,1,1,1,1,   0.98438,  28.46395,1.06000,0.94000,1.06000,0.94000
	84,'84		  ',138.0000,1,1,1,1,   0.97970,  31.00031,1.06000,0.94000,1.06000,0.94000
	85,'85		  ',138.0000,2,1,1,1,   0.98500,  32.55562,1.06000,0.94000,1.06000,0.94000
	86,'86		  ',138.0000,1,1,1,1,   0.98669,  31.18617,1.06000,0.94000,1.06000,0.94000
	87,'87		  ',161.0000,2,1,1,1,   1.01500,  31.44539,1.06000,0.94000,1.06000,0.94000
	88,'88		  ',138.0000,1,1,1,1,   0.98745,  35.69035,1.06000,0.94000,1.06000,0.94000
	89,'89		  ',138.0000,2,1,1,1,   1.00500,  39.74834,1.06000,0.94000,1.06000,0.94000
	90,'90		  ',138.0000,2,1,1,1,   0.98500,  33.33837,1.06000,0.94000,1.06000,0.94000
	91,'91		  ',138.0000,2,1,1,1,   0.98000,  33.35064,1.06000,0.94000,1.06000,0.94000
	92,'92		  ',138.0000,2,1,1,1,   0.99000,  33.88080,1.06000,0.94000,1.06000,0.94000
	93,'93		  ',138.0000,1,1,1,1,   0.98543,  30.84910,1.06000,0.94000,1.06000,0.94000
	94,'94		  ',138.0000,1,1,1,1,   0.98983,  28.68221,1.06000,0.94000,1.06000,0.94000
	95,'95		  ',138.0000,1,1,1,1,   0.98033,  27.70956,1.06000,0.94000,1.06000,0.94000
	96,'96		  ',138.0000,1,1,1,1,   0.99228,  27.54259,1.06000,0.94000,1.06000,0.94000
	97,'97		  ',138.0000,1,1,1,1,   1.01117,  27.91584,1.06000,0.94000,1.06000,0.94000
	98,'98		  ',138.0000,1,1,1,1,   1.02351,  27.43335,1.06000,0.94000,1.06000,0.94000
	99,'99		  ',138.0000,2,1,1,1,   1.01000,  27.06677,1.06000,0.94000,1.06000,0.94000
   100,'100		 ',138.0000,2,1,1,1,   1.01700,  28.05884,1.06000,0.94000,1.06000,0.94000
   101,'101		 ',138.0000,1,1,1,1,   0.99142,  29.64688,1.06000,0.94000,1.06000,0.94000
   102,'102		 ',138.0000,1,1,1,1,   0.98913,  32.36499,1.06000,0.94000,1.06000,0.94000
   103,'103		 ',138.0000,2,1,1,1,   1.01000,  24.31775,1.06000,0.94000,1.06000,0.94000
   104,'104		 ',138.0000,2,1,1,1,   0.97100,  21.74777,1.06000,0.94000,1.06000,0.94000
   105,'105		 ',138.0000,2,1,1,1,   0.96500,  20.64357,1.06000,0.94000,1.06000,0.94000
   106,'106		 ',138.0000,1,1,1,1,   0.96115,  20.38340,1.06000,0.94000,1.06000,0.94000
   107,'107		 ',138.0000,2,1,1,1,   0.95200,  17.58267,1.06000,0.94000,1.06000,0.94000
   108,'108		 ',138.0000,1,1,1,1,   0.96621,  19.44348,1.06000,0.94000,1.06000,0.94000
   109,'109		 ',138.0000,1,1,1,1,   0.96703,  18.99089,1.06000,0.94000,1.06000,0.94000
   110,'110		 ',138.0000,2,1,1,1,   0.97300,  18.14403,1.06000,0.94000,1.06000,0.94000
   111,'111		 ',138.0000,2,1,1,1,   0.98000,  19.78911,1.06000,0.94000,1.06000,0.94000
   112,'112		 ',138.0000,2,1,1,1,   0.97500,  15.04481,1.06000,0.94000,1.06000,0.94000
   113,'113		 ',138.0000,2,1,1,1,   0.99300,  13.99258,1.06000,0.94000,1.06000,0.94000
   114,'114		 ',138.0000,1,1,1,1,   0.96009,  14.72641,1.06000,0.94000,1.06000,0.94000
   115,'115		 ',138.0000,1,1,1,1,   0.96002,  14.71813,1.06000,0.94000,1.06000,0.94000
   116,'116		 ',138.0000,2,1,1,1,   1.00500,  27.16284,1.06000,0.94000,1.06000,0.94000
   117,'117		 ',138.0000,1,1,1,1,   0.97382,  10.94791,1.06000,0.94000,1.06000,0.94000
   118,'118		 ',138.0000,1,1,1,1,   0.94944,  21.94187,1.06000,0.94000,1.06000,0.94000
0 / END OF BUS DATA, BEGIN LOAD DATA
	 1,'1 ',1,1,1,51.00000000,27.00000000, 0.000, 0.000,0.000,0.000,  1,1,0
	 2,'1 ',1,1,1,20.00000000,9.00000000, 0.000, 0.000,0.000,0.000,  1,1,0
	 3,'1 ',1,1,1,39.00000000,10.00000000, 0.000, 0.000,0.000,0.000,  1,1,0
	 4,'1 ',1,1,1,39.00000000,12.00000000, 0.000, 0.000,0.000,0.000,  1,1,0
	 6,'1 ',1,1,1,52.00000000,22.00000000, 0.000, 0.000,0.000,0.000,  1,1,0
	 7,'1 ',1,1,1,19.00000000,2.00000000, 0.000, 0.000,0.000,0.000,  1,1,0
	 8,'1 ',1,1,1,28.00000000,0.00000000, 0.000, 0.000,0.000,0.000,  1,1,0
	11,'1 ',1,1,1,70.00000000,23.00000000, 0.000, 0.000,0.000,0.000,  1,1,0
	12,'1 ',1,1,1,47.00000000,10.00000000, 0.000, 0.000,0.000,0.000,  1,1,0
	13,'1 ',1,1,1,34.00000000,16.00000000, 0.000, 0.000,0.000,0.000,  1,1,0
	14,'1 ',1,1,1,14.00000000,1.00000000, 0.000, 0.000,0.000,0.000,  1,1,0
	15,'1 ',1,1,1,90.00000000,30.00000000, 0.000, 0.000,0.000,0.000,  1,1,0
	16,'1 ',1,1,1,25.00000000,10.00000000, 0.000, 0.000,0.000,0.000,  1,1,0
	17,'1 ',1,1,1,11.00000000,3.00000000, 0.000, 0.000,0.000,0.000,  1,1,0
	18,'1 ',1,1,1,60.00000000,34.00000000, 0.000, 0.000,0.000,0.000,  1,1,0
	19,'1 ',1,1,1,45.00000000,25.00000000, 0.000, 0.000,0.000,0.000,  1,1,0
	20,'1 ',1,1,1,18.00000000,3.00000000, 0.000, 0.000,0.000,0.000,  1,1,0
	21,'1 ',1,1,1,14.00000000,8.00000000, 0.000, 0.000,0.000,0.000,  1,1,0
	22,'1 ',1,1,1,10.00000000,5.00000000, 0.000, 0.000,0.000,0.000,  1,1,0
	23,'1 ',1,1,1,7.00000000,3.00000000, 0.000, 0.000,0.000,0.000,  1,1,0
	24,'1 ',1,1,1,13.00000000,0.00000000, 0.000, 0.000,0.000,0.000,  1,1,0
	27,'1 ',1,1,1,71.00000000,13.00000000, 0.000, 0.000,0.000,0.000,  1,1,0
	28,'1 ',1,1,1,17.00000000,7.00000000, 0.000, 0.000,0.000,0.000,  1,1,0
	29,'1 ',1,1,1,24.00000000,4.00000000, 0.000, 0.000,0.000,0.000,  1,1,0
	31,'1 ',1,1,1,43.00000000,27.00000000, 0.000, 0.000,0.000,0.000,  1,1,0
	32,'1 ',1,1,1,59.00000000,23.00000000, 0.000, 0.000,0.000,0.000,  1,1,0
	33,'1 ',1,1,1,23.00000000,9.00000000, 0.000, 0.000,0.000,0.000,  1,1,0
	34,'1 ',1,1,1,59.00000000,26.00000000, 0.000, 0.000,0.000,0.000,  1,1,0
	35,'1 ',1,1,1,33.00000000,9.00000000, 0.000, 0.000,0.000,0.000,  1,1,0
	36,'1 ',1,1,1,31.00000000,17.00000000, 0.000, 0.000,0.000,0.000,  1,1,0
	39,'1 ',1,1,1,27.00000000,11.00000000, 0.000, 0.000,0.000,0.000,  1,1,0
	40,'1 ',1,1,1,66.00000000,23.00000000, 0.000, 0.000,0.000,0.000,  1,1,0
	41,'1 ',1,1,1,37.00000000,10.00000000, 0.000, 0.000,0.000,0.000,  1,1,0
	42,'1 ',1,1,1,96.00000000,23.00000000, 0.000, 0.000,0.000,0.000,  1,1,0
	43,'1 ',1,1,1,18.00000000,7.00000000, 0.000, 0.000,0.000,0.000,  1,1,0
	44,'1 ',1,1,1,16.00000000,8.00000000, 0.000, 0.000,0.000,0.000,  1,1,0
	45,'1 ',1,1,1,53.00000000,22.00000000, 0.000, 0.000,0.000,0.000,  1,1,0
	46,'1 ',1,1,1,28.00000000,10.00000000, 0.000, 0.000,0.000,0.000,  1,1,0
	47,'1 ',1,1,1,34.00000000,0.00000000, 0.000, 0.000,0.000,0.000,  1,1,0
	48,'1 ',1,1,1,20.00000000,11.00000000, 0.000, 0.000,0.000,0.000,  1,1,0
	49,'1 ',1,1,1,87.00000000,30.00000000, 0.000, 0.000,0.000,0.000,  1,1,0
	50,'1 ',1,1,1,17.00000000,4.00000000, 0.000, 0.000,0.000,0.000,  1,1,0
	51,'1 ',1,1,1,17.00000000,8.00000000, 0.000, 0.000,0.000,0.000,  1,1,0
	52,'1 ',1,1,1,18.00000000,5.00000000, 0.000, 0.000,0.000,0.000,  1,1,0
	53,'1 ',1,1,1,23.00000000,11.00000000, 0.000, 0.000,0.000,0.000,  1,1,0
	54,'1 ',1,1,1,113.00000000,32.00000000, 0.000, 0.000,0.000,0.000,  1,1,0
	55,'1 ',1,1,1,63.00000000,22.00000000, 0.000, 0.000,0.000,0.000,  1,1,0
	56,'1 ',1,1,1,84.00000000,18.00000000, 0.000, 0.000,0.000,0.000,  1,1,0
	57,'1 ',1,1,1,12.00000000,3.00000000, 0.000, 0.000,0.000,0.000,  1,1,0
	58,'1 ',1,1,1,12.00000000,3.00000000, 0.000, 0.000,0.000,0.000,  1,1,0
	59,'1 ',1,1,1,277.00000000,113.00000000, 0.000, 0.000,0.000,0.000,  1,1,0
	60,'1 ',1,1,1,78.00000000,3.00000000, 0.000, 0.000,0.000,0.000,  1,1,0
	62,'1 ',1,1,1,77.00000000,14.00000000, 0.000, 0.000,0.000,0.000,  1,1,0
	66,'1 ',1,1,1,39.00000000,18.00000000, 0.000, 0.000,0.000,0.000,  1,1,0
	67,'1 ',1,1,1,28.00000000,7.00000000, 0.000, 0.000,0.000,0.000,  1,1,0
	70,'1 ',1,1,1,66.00000000,20.00000000, 0.000, 0.000,0.000,0.000,  1,1,0
	72,'1 ',1,1,1,12.00000000,0.00000000, 0.000, 0.000,0.000,0.000,  1,1,0
	73,'1 ',1,1,1,6.00000000,0.00000000, 0.000, 0.000,0.000,0.000,  1,1,0
	74,'1 ',1,1,1,68.00000000,27.00000000, 0.000, 0.000,0.000,0.000,  1,1,0
	75,'1 ',1,1,1,47.00000000,11.00000000, 0.000, 0.000,0.000,0.000,  1,1,0
	76,'1 ',1,1,1,68.00000000,36.00000000, 0.000, 0.000,0.000,0.000,  1,1,0
	77,'1 ',1,1,1,61.00000000,28.00000000, 0.000, 0.000,0.000,0.000,  1,1,0
	78,'1 ',1,1,1,71.00000000,26.00000000, 0.000, 0.000,0.000,0.000,  1,1,0
	79,'1 ',1,1,1,39.00000000,32.00000000, 0.000, 0.000,0.000,0.000,  1,1,0
	80,'1 ',1,1,1,130.00000000,26.00000000, 0.000, 0.000,0.000,0.000,  1,1,0
	82,'1 ',1,1,1,54.00000000,27.00000000, 0.000, 0.000,0.000,0.000,  1,1,0
	83,'1 ',1,1,1,20.00000000,10.00000000, 0.000, 0.000,0.000,0.000,  1,1,0
	84,'1 ',1,1,1,11.00000000,7.00000000, 0.000, 0.000,0.000,0.000,  1,1,0
	85,'1 ',1,1,1,24.00000000,15.00000000, 0.000, 0.000,0.000,0.000,  1,1,0
	86,'1 ',1,1,1,21.00000000,10.00000000, 0.000, 0.000,0.000,0.000,  1,1,0
	88,'1 ',1,1,1,48.00000000,10.00000000, 0.000, 0.000,0.000,0.000,  1,1,0
	90,'1 ',1,1,1,163.00000000,42.00000000, 0.000, 0.000,0.000,0.000,  1,1,0
	91,'1 ',1,1,1,10.00000000,0.00000000, 0.000, 0.000,0.000,0.000,  1,1,0
	92,'1 ',1,1,1,65.00000000,10.00000000, 0.000, 0.000,0.000,0.000,  1,1,0
	93,'1 ',1,1,1,12.00000000,7.00000000, 0.000, 0.000,0.000,0.000,  1,1,0
	94,'1 ',1,1,1,30.00000000,16.00000000, 0.000, 0.000,0.000,0.000,  1,1,0
	95,'1 ',1,1,1,42.00000000,31.00000000, 0.000, 0.000,0.000,0.000,  1,1,0
	96,'1 ',1,1,1,38.00000000,15.00000000, 0.000, 0.000,0.000,0.000,  1,1,0
	97,'1 ',1,1,1,15.00000000,9.00000000, 0.000, 0.000,0.000,0.000,  1,1,0
	98,'1 ',1,1,1,34.00000000,8.00000000, 0.000, 0.000,0.000,0.000,  1,1,0
	99,'1 ',1,1,1,42.00000000,0.00000000, 0.000, 0.000,0.000,0.000,  1,1,0
   100,'1 ',1,1,1,37.00000000,18.00000000, 0.000, 0.000,0.000,0.000,  1,1,0
   101,'1 ',1,1,1,22.00000000,15.00000000, 0.000, 0.000,0.000,0.000,  1,1,0
   102,'1 ',1,1,1,5.00000000,3.00000000, 0.000, 0.000,0.000,0.000,  1,1,0
   103,'1 ',1,1,1,23.00000000,16.00000000, 0.000, 0.000,0.000,0.000,  1,1,0
   104,'1 ',1,1,1,38.00000000,25.00000000, 0.000, 0.000,0.000,0.000,  1,1,0
   105,'1 ',1,1,1,31.00000000,26.00000000, 0.000, 0.000,0.000,0.000,  1,1,0
   106,'1 ',1,1,1,43.00000000,16.00000000, 0.000, 0.000,0.000,0.000,  1,1,0
   107,'1 ',1,1,1,50.00000000,12.00000000, 0.000, 0.000,0.000,0.000,  1,1,0
   108,'1 ',1,1,1,2.00000000,1.00000000, 0.000, 0.000,0.000,0.000,  1,1,0
   109,'1 ',1,1,1,8.00000000,3.00000000, 0.000, 0.000,0.000,0.000,  1,1,0
   110,'1 ',1,1,1,39.00000000,30.00000000, 0.000, 0.000,0.000,0.000,  1,1,0
   112,'1 ',1,1,1,68.00000000,13.00000000, 0.000, 0.000,0.000,0.000,  1,1,0
   113,'1 ',1,1,1,6.00000000,0.00000000, 0.000, 0.000,0.000,0.000,  1,1,0
   114,'1 ',1,1,1,8.00000000,3.00000000, 0.000, 0.000,0.000,0.000,  1,1,0
   115,'1 ',1,1,1,22.00000000,7.00000000, 0.000, 0.000,0.000,0.000,  1,1,0
   116,'1 ',1,1,1,184.00000000,0.00000000, 0.000, 0.000,0.000,0.000,  1,1,0
   117,'1 ',1,1,1,20.00000000,8.00000000, 0.000, 0.000,0.000,0.000,  1,1,0
   118,'1 ',1,1,1,33.00000000,15.00000000, 0.000, 0.000,0.000,0.000,  1,1,0
0 / END OF LOAD DATA, BEGIN FIXED SHUNT DATA
	 5,'1 ',1,	0.000,   -40.000
	34,'1 ',1,	0.000,	14.000
	37,'1 ',1,	0.000,   -25.000
	44,'1 ',1,	0.000,	10.000
	45,'1 ',1,	0.000,	10.000
	46,'1 ',1,	0.000,	10.000
	48,'1 ',1,	0.000,	15.000
	74,'1 ',1,	0.000,	12.000
	79,'1 ',1,	0.000,	20.000
	82,'1 ',1,	0.000,	20.000
	83,'1 ',1,	0.000,	10.000
   105,'1 ',1,	0.000,	20.000
   107,'1 ',1,	0.000,	 6.000
   110,'1 ',1,	0.000,	 6.000
0 / END OF FIXED SHUNT DATA, BEGIN GENERATOR DATA
	  1,'1 ',  0.0000, -3.1041, 15.0000, -5.0000,0.95500,	0,100.0000, 0.0000, 0.2370, 0.0000, 0.0000, 1.0000, 1,100.0000,100.0000,  0.0000,  1,1.0000
	  4,'1 ',  0.0000,-15.0096,300.0000,-300.0000,0.99800,	0,100.0000, 0.0000, 0.2370, 0.0000, 0.0000, 1.0000, 1,100.0000,100.0000,  0.0000,  1,1.0000
	  6,'1 ',  0.0000, 15.9298, 50.0000,-13.0000,0.99000,	0,100.0000, 0.0000, 0.2370, 0.0000, 0.0000, 1.0000, 1,100.0000,100.0000,  0.0000,  1,1.0000
	  8,'1 ',  0.0000, 63.1384,300.0000,-300.0000,1.01500,	0,100.0000, 0.0000, 0.2370, 0.0000, 0.0000, 1.0000, 1,100.0000,100.0000,  0.0000,  1,1.0000
	 10,'1 ',450.0000,-51.0422,200.0000,-147.0000,1.05000,	0,550.0000, 0.0000, 0.2370, 0.0000, 0.0000, 1.0000, 1,100.0000,550.0000,  0.0000,  1,1.0000
	 12,'1 ', 85.0000, 91.2917,120.0000,-35.0000,0.99000,	0,185.0000, 0.0000, 0.2370, 0.0000, 0.0000, 1.0000, 1,100.0000,185.0000,  0.0000,  1,1.0000
	 15,'1 ',  0.0000,  7.1605, 30.0000,-10.0000,0.97000,	0,100.0000, 0.0000, 0.2370, 0.0000, 0.0000, 1.0000, 1,100.0000,100.0000,  0.0000,  1,1.0000
	 18,'1 ',  0.0000, 28.4263, 50.0000,-16.0000,0.97300,	0,100.0000, 0.0000, 0.2370, 0.0000, 0.0000, 1.0000, 1,100.0000,100.0000,  0.0000,  1,1.0000
	 19,'1 ',  0.0000,-14.2742, 24.0000, -8.0000,0.96200,	0,100.0000, 0.0000, 0.2370, 0.0000, 0.0000, 1.0000, 1,100.0000,100.0000,  0.0000,  1,1.0000
	 24,'1 ',  0.0000,-14.9076,300.0000,-300.0000,0.99200,	0,100.0000, 0.0000, 0.2370, 0.0000, 0.0000, 1.0000, 1,100.0000,100.0000,  0.0000,  1,1.0000
	 25,'1 ',220.0000, 50.0433,140.0000,-47.0000,1.05000,	0,320.0000, 0.0000, 0.2370, 0.0000, 0.0000, 1.0000, 1,100.0000,320.0000,  0.0000,  1,1.0000
	 26,'1 ',314.0000, 10.1247,1000.0000,-1000.0000,1.01500,	0,414.0000, 0.0000, 0.2370, 0.0000, 0.0000, 1.0000, 1,100.0000,414.0000,  0.0000,  1,1.0000
	 27,'1 ',  0.0000,  3.9823,300.0000,-300.0000,0.96800,	0,100.0000, 0.0000, 0.2370, 0.0000, 0.0000, 1.0000, 1,100.0000,100.0000,  0.0000,  1,1.0000
	 31,'1 ',  7.0000, 32.5860,300.0000,-300.0000,0.96700,	0,107.0000, 0.0000, 0.2370, 0.0000, 0.0000, 1.0000, 1,100.0000,107.0000,  0.0000,  1,1.0000
	 32,'1 ',  0.0000,-16.2848, 42.0000,-14.0000,0.96300,	0,100.0000, 0.0000, 0.2370, 0.0000, 0.0000, 1.0000, 1,100.0000,100.0000,  0.0000,  1,1.0000
	 34,'1 ',  0.0000,-20.8271, 24.0000, -8.0000,0.98400,	0,100.0000, 0.0000, 0.2370, 0.0000, 0.0000, 1.0000, 1,100.0000,100.0000,  0.0000,  1,1.0000
	 36,'1 ',  0.0000,  7.7251, 24.0000, -8.0000,0.98000,	0,100.0000, 0.0000, 0.2370, 0.0000, 0.0000, 1.0000, 1,100.0000,100.0000,  0.0000,  1,1.0000
	 40,'1 ',  0.0000, 28.4541,300.0000,-300.0000,0.97000,	0,100.0000, 0.0000, 0.2370, 0.0000, 0.0000, 1.0000, 1,100.0000,100.0000,  0.0000,  1,1.0000
	 42,'1 ',  0.0000, 41.0296,300.0000,-300.0000,0.98500,	0,100.0000, 0.0000, 0.2370, 0.0000, 0.0000, 1.0000, 1,100.0000,100.0000,  0.0000,  1,1.0000
	 46,'1 ', 19.0000, -5.0295,100.0000,-100.0000,1.00500,	0,119.0000, 0.0000, 0.2370, 0.0000, 0.0000, 1.0000, 1,100.0000,119.0000,  0.0000,  1,1.0000
	 49,'1 ',204.0000,115.8451,210.0000,-85.0000,1.02500,	0,304.0000, 0.0000, 0.2370, 0.0000, 0.0000, 1.0000, 1,100.0000,304.0000,  0.0000,  1,1.0000
	 54,'1 ', 48.0000,  3.9011,300.0000,-300.0000,0.95500,	0,148.0000, 0.0000, 0.2370, 0.0000, 0.0000, 1.0000, 1,100.0000,148.0000,  0.0000,  1,1.0000
	 55,'1 ',  0.0000,  4.6642, 23.0000, -8.0000,0.95200,	0,100.0000, 0.0000, 0.2370, 0.0000, 0.0000, 1.0000, 1,100.0000,100.0000,  0.0000,  1,1.0000
	 56,'1 ',  0.0000, -2.2857, 15.0000, -8.0000,0.95400,	0,100.0000, 0.0000, 0.2370, 0.0000, 0.0000, 1.0000, 1,100.0000,100.0000,  0.0000,  1,1.0000
	 59,'1 ',155.0000, 76.8340,180.0000,-60.0000,0.98500,	0,255.0000, 0.0000, 0.2370, 0.0000, 0.0000, 1.0000, 1,100.0000,255.0000,  0.0000,  1,1.0000
	 61,'1 ',160.0000,-40.3940,300.0000,-100.0000,0.99500,	0,260.0000, 0.0000, 0.2370, 0.0000, 0.0000, 1.0000, 1,100.0000,260.0000,  0.0000,  1,1.0000
	 62,'1 ',  0.0000,  1.2584, 20.0000,-20.0000,0.99800,	0,100.0000, 0.0000, 0.2370, 0.0000, 0.0000, 1.0000, 1,100.0000,100.0000,  0.0000,  1,1.0000
	 65,'1 ',391.0000, 81.5102,200.0000,-67.0000,1.00500,	0,491.0000, 0.0000, 0.2370, 0.0000, 0.0000, 1.0000, 1,100.0000,491.0000,  0.0000,  1,1.0000
	 66,'1 ',392.0000, -1.9566,200.0000,-67.0000,1.05000,	0,492.0000, 0.0000, 0.2370, 0.0000, 0.0000, 1.0000, 1,100.0000,492.0000,  0.0000,  1,1.0000
	 69,'1 ',513.8629,-82.4241,300.0000,-300.0000,1.03500,	0,613.8629, 0.0000, 0.2370, 0.0000, 0.0000, 1.0000, 1,100.0000,805.2000,  0.0000,  1,1.0000
	 70,'1 ',  0.0000,  9.6693, 32.0000,-10.0000,0.98400,	0,100.0000, 0.0000, 0.2370, 0.0000, 0.0000, 1.0000, 1,100.0000,100.0000,  0.0000,  1,1.0000
	 72,'1 ',  0.0000,-11.1301,100.0000,-100.0000,0.98000,	0,100.0000, 0.0000, 0.2370, 0.0000, 0.0000, 1.0000, 1,100.0000,100.0000,  0.0000,  1,1.0000
	 73,'1 ',  0.0000,  9.6514,100.0000,-100.0000,0.99100,	0,100.0000, 0.0000, 0.2370, 0.0000, 0.0000, 1.0000, 1,100.0000,100.0000,  0.0000,  1,1.0000
	 74,'1 ',  0.0000, -5.6252,  9.0000, -6.0000,0.95800,	0,100.0000, 0.0000, 0.2370, 0.0000, 0.0000, 1.0000, 1,100.0000,100.0000,  0.0000,  1,1.0000
	 76,'1 ',  0.0000,  5.2681, 23.0000, -8.0000,0.94300,	0,100.0000, 0.0000, 0.2370, 0.0000, 0.0000, 1.0000, 1,100.0000,100.0000,  0.0000,  1,1.0000
	 77,'1 ',  0.0000, 12.1704, 70.0000,-20.0000,1.00600,	0,100.0000, 0.0000, 0.2370, 0.0000, 0.0000, 1.0000, 1,100.0000,100.0000,  0.0000,  1,1.0000
	 80,'1 ',477.0000,105.4665,280.0000,-165.0000,1.04000,	0,577.0000, 0.0000, 0.2370, 0.0000, 0.0000, 1.0000, 1,100.0000,577.0000,  0.0000,  1,1.0000
	 85,'1 ',  0.0000, -5.6066, 23.0000, -8.0000,0.98500,	0,100.0000, 0.0000, 0.2370, 0.0000, 0.0000, 1.0000, 1,100.0000,100.0000,  0.0000,  1,1.0000
	 87,'1 ',  4.0000, 11.0216,1000.0000,-100.0000,1.01500,	0,104.0000, 0.0000, 0.2370, 0.0000, 0.0000, 1.0000, 1,100.0000,104.0000,  0.0000,  1,1.0000
	 89,'1 ',607.0000, -5.9050,300.0000,-210.0000,1.00500,	0,707.0000, 0.0000, 0.2370, 0.0000, 0.0000, 1.0000, 1,100.0000,707.0000,  0.0000,  1,1.0000
	 90,'1 ',  0.0000, 59.3084,300.0000,-300.0000,0.98500,	0,100.0000, 0.0000, 0.2370, 0.0000, 0.0000, 1.0000, 1,100.0000,100.0000,  0.0000,  1,1.0000
	 91,'1 ',  0.0000,-13.0880,100.0000,-100.0000,0.98000,	0,100.0000, 0.0000, 0.2370, 0.0000, 0.0000, 1.0000, 1,100.0000,100.0000,  0.0000,  1,1.0000
	 92,'1 ',  0.0000,-13.9562,  9.0000, -3.0000,0.99000,	0,100.0000, 0.0000, 0.2370, 0.0000, 0.0000, 1.0000, 1,100.0000,100.0000,  0.0000,  1,1.0000
	 99,'1 ',  0.0000,-17.5356,100.0000,-100.0000,1.01000,	0,100.0000, 0.0000, 0.2370, 0.0000, 0.0000, 1.0000, 1,100.0000,100.0000,  0.0000,  1,1.0000
	100,'1 ',252.0000, 95.5521,155.0000,-50.0000,1.01700,	0,352.0000, 0.0000, 0.2370, 0.0000, 0.0000, 1.0000, 1,100.0000,352.0000,  0.0000,  1,1.0000
	103,'1 ', 40.0000, 75.4224, 40.0000,-15.0000,1.01000,	0,140.0000, 0.0000, 0.2370, 0.0000, 0.0000, 1.0000, 1,100.0000,140.0000,  0.0000,  1,1.0000
	104,'1 ',  0.0000,  2.3883, 23.0000, -8.0000,0.97100,	0,100.0000, 0.0000, 0.2370, 0.0000, 0.0000, 1.0000, 1,100.0000,100.0000,  0.0000,  1,1.0000
	105,'1 ',  0.0000,-18.3345, 23.0000, -8.0000,0.96500,	0,100.0000, 0.0000, 0.2370, 0.0000, 0.0000, 1.0000, 1,100.0000,100.0000,  0.0000,  1,1.0000
	107,'1 ',  0.0000,  6.5578,200.0000,-200.0000,0.95200,	0,100.0000, 0.0000, 0.2370, 0.0000, 0.0000, 1.0000, 1,100.0000,100.0000,  0.0000,  1,1.0000
	110,'1 ',  0.0000,  0.2808, 23.0000, -8.0000,0.97300,	0,100.0000, 0.0000, 0.2370, 0.0000, 0.0000, 1.0000, 1,100.0000,100.0000,  0.0000,  1,1.0000
	111,'1 ', 36.0000, -1.8438,1000.0000,-100.0000,0.98000,	0,136.0000, 0.0000, 0.2370, 0.0000, 0.0000, 1.0000, 1,100.0000,136.0000,  0.0000,  1,1.0000
	112,'1 ',  0.0000, 41.5117,1000.0000,-100.0000,0.97500,	0,100.0000, 0.0000, 0.2370, 0.0000, 0.0000, 1.0000, 1,100.0000,100.0000,  0.0000,  1,1.0000
	113,'1 ',  0.0000,  6.7526,200.0000,-100.0000,0.99300,	0,100.0000, 0.0000, 0.2370, 0.0000, 0.0000, 1.0000, 1,100.0000,100.0000,  0.0000,  1,1.0000
	116,'1 ',  0.0000, 51.3225,1000.0000,-1000.0000,1.00500,	0,100.0000, 0.0000, 0.2370, 0.0000, 0.0000, 1.0000, 1,100.0000,100.0000,  0.0000,  1,1.99000,,,,,,,,1,,
0 / END OF GENERATOR DATA, BEGIN BRANCH DATA
	  1,	  2,'BL', 0.03030, 0.09990, 0.02540,0.00000,0.00000,0.00000,0.0000,0.0000,0.0000,0.0000, 1,1,0.00,1,1.0000
	  1,	  3,'BL', 0.01290, 0.04240, 0.01082,0.00000,0.00000,0.00000,0.0000,0.0000,0.0000,0.0000, 1,1,0.00,1,1.0000
	  4,	  5,'BL', 0.00176, 0.00798, 0.00210,0.00000,0.00000,0.00000,0.0000,0.0000,0.0000,0.0000, 1,1,0.00,1,1.0000
	  3,	  5,'BL', 0.02410, 0.10800, 0.02840,0.00000,0.00000,0.00000,0.0000,0.0000,0.0000,0.0000, 1,1,0.00,1,1.0000
	  5,	  6,'BL', 0.01190, 0.05400, 0.01426,0.00000,0.00000,0.00000,0.0000,0.0000,0.0000,0.0000, 1,1,0.00,1,1.0000
	  6,	  7,'BL', 0.00459, 0.02080, 0.00550,0.00000,0.00000,0.00000,0.0000,0.0000,0.0000,0.0000, 1,1,0.00,1,1.0000
	  8,	  9,'BL', 0.00244, 0.03050, 1.16200,0.00000,0.00000,0.00000,0.0000,0.0000,0.0000,0.0000, 1,1,0.00,1,1.0000
	  8,	  5,'BL', 0.00000, 0.02670, 0.00000,0.00000,0.00000,0.00000,0.0000,0.0000,0.0000,0.0000, 1,1,0.00,1,1.0000
	  9,	 10,'BL', 0.00258, 0.03220, 1.23000,0.00000,0.00000,0.00000,0.0000,0.0000,0.0000,0.0000, 1,1,0.00,1,1.0000
	  4,	 11,'BL', 0.02090, 0.06880, 0.01748,0.00000,0.00000,0.00000,0.0000,0.0000,0.0000,0.0000, 1,1,0.00,1,1.0000
	  5,	 11,'BL', 0.02030, 0.06820, 0.01738,0.00000,0.00000,0.00000,0.0000,0.0000,0.0000,0.0000, 1,1,0.00,1,1.0000
	 11,	 12,'BL', 0.00595, 0.01960, 0.00502,0.00000,0.00000,0.00000,0.0000,0.0000,0.0000,0.0000, 1,1,0.00,1,1.0000
	  2,	 12,'BL', 0.01870, 0.06160, 0.01572,0.00000,0.00000,0.00000,0.0000,0.0000,0.0000,0.0000, 1,1,0.00,1,1.0000
	  3,	 12,'BL', 0.04840, 0.16000, 0.04060,0.00000,0.00000,0.00000,0.0000,0.0000,0.0000,0.0000, 1,1,0.00,1,1.0000
	  7,	 12,'BL', 0.00862, 0.03400, 0.00874,0.00000,0.00000,0.00000,0.0000,0.0000,0.0000,0.0000, 1,1,0.00,1,1.0000
	 11,	 13,'BL', 0.02225, 0.07310, 0.01876,0.00000,0.00000,0.00000,0.0000,0.0000,0.0000,0.0000, 1,1,0.00,1,1.0000
	 12,	 14,'BL', 0.02150, 0.07070, 0.01816,0.00000,0.00000,0.00000,0.0000,0.0000,0.0000,0.0000, 1,1,0.00,1,1.0000
	 13,	 15,'BL', 0.07440, 0.24440, 0.06268,0.00000,0.00000,0.00000,0.0000,0.0000,0.0000,0.0000, 1,1,0.00,1,1.0000
	 14,	 15,'BL', 0.05950, 0.19500, 0.05020,0.00000,0.00000,0.00000,0.0000,0.0000,0.0000,0.0000, 1,1,0.00,1,1.0000
	 12,	 16,'BL', 0.02120, 0.08340, 0.02140,0.00000,0.00000,0.00000,0.0000,0.0000,0.0000,0.0000, 1,1,0.00,1,1.0000
	 15,	 17,'BL', 0.01320, 0.04370, 0.04440,0.00000,0.00000,0.00000,0.0000,0.0000,0.0000,0.0000, 1,1,0.00,1,1.0000
	 16,	 17,'BL', 0.04540, 0.18010, 0.04660,0.00000,0.00000,0.00000,0.0000,0.0000,0.0000,0.0000, 1,1,0.00,1,1.0000
	 17,	 18,'BL', 0.01230, 0.05050, 0.01298,0.00000,0.00000,0.00000,0.0000,0.0000,0.0000,0.0000, 1,1,0.00,1,1.0000
	 18,	 19,'BL', 0.01119, 0.04930, 0.01142,0.00000,0.00000,0.00000,0.0000,0.0000,0.0000,0.0000, 1,1,0.00,1,1.0000
	 19,	 20,'BL', 0.02520, 0.11700, 0.02980,0.00000,0.00000,0.00000,0.0000,0.0000,0.0000,0.0000, 1,1,0.00,1,1.0000
	 15,	 19,'BL', 0.01200, 0.03940, 0.01010,0.00000,0.00000,0.00000,0.0000,0.0000,0.0000,0.0000, 1,1,0.00,1,1.0000
	 20,	 21,'BL', 0.01830, 0.08490, 0.02160,0.00000,0.00000,0.00000,0.0000,0.0000,0.0000,0.0000, 1,1,0.00,1,1.0000
	 21,	 22,'BL', 0.02090, 0.09700, 0.02460,0.00000,0.00000,0.00000,0.0000,0.0000,0.0000,0.0000, 1,1,0.00,1,1.0000
	 22,	 23,'BL', 0.03420, 0.15900, 0.04040,0.00000,0.00000,0.00000,0.0000,0.0000,0.0000,0.0000, 1,1,0.00,1,1.0000
	 23,	 24,'BL', 0.01350, 0.04920, 0.04980,0.00000,0.00000,0.00000,0.0000,0.0000,0.0000,0.0000, 1,1,0.00,1,1.0000
	 23,	 25,'BL', 0.01560, 0.08000, 0.08640,0.00000,0.00000,0.00000,0.0000,0.0000,0.0000,0.0000, 1,1,0.00,1,1.0000
	 26,	 25,'BL', 0.00000, 0.03820, 0.00000,0.00000,0.00000,0.00000,0.0000,0.0000,0.0000,0.0000, 1,1,0.00,1,1.0000
	 25,	 27,'BL', 0.03180, 0.16300, 0.17640,0.00000,0.00000,0.00000,0.0000,0.0000,0.0000,0.0000, 1,1,0.00,1,1.0000
	 27,	 28,'BL', 0.01913, 0.08550, 0.02160,0.00000,0.00000,0.00000,0.0000,0.0000,0.0000,0.0000, 1,1,0.00,1,1.0000
	 28,	 29,'BL', 0.02370, 0.09430, 0.02380,0.00000,0.00000,0.00000,0.0000,0.0000,0.0000,0.0000, 1,1,0.00,1,1.0000
	 30,	 17,'BL', 0.00000, 0.03880, 0.00000,0.00000,0.00000,0.00000,0.0000,0.0000,0.0000,0.0000, 1,1,0.00,1,1.0000
	  8,	 30,'BL', 0.00431, 0.05040, 0.51400,0.00000,0.00000,0.00000,0.0000,0.0000,0.0000,0.0000, 1,1,0.00,1,1.0000
	 26,	 30,'BL', 0.00799, 0.08600, 0.90800,0.00000,0.00000,0.00000,0.0000,0.0000,0.0000,0.0000, 1,1,0.00,1,1.0000
	 17,	 31,'BL', 0.04740, 0.15630, 0.03990,0.00000,0.00000,0.00000,0.0000,0.0000,0.0000,0.0000, 1,1,0.00,1,1.0000
	 29,	 31,'BL', 0.01080, 0.03310, 0.00830,0.00000,0.00000,0.00000,0.0000,0.0000,0.0000,0.0000, 1,1,0.00,1,1.0000
	 23,	 32,'BL', 0.03170, 0.11530, 0.11730,0.00000,0.00000,0.00000,0.0000,0.0000,0.0000,0.0000, 1,1,0.00,1,1.0000
	 31,	 32,'BL', 0.02980, 0.09850, 0.02510,0.00000,0.00000,0.00000,0.0000,0.0000,0.0000,0.0000, 1,1,0.00,1,1.0000
	 27,	 32,'BL', 0.02290, 0.07550, 0.01926,0.00000,0.00000,0.00000,0.0000,0.0000,0.0000,0.0000, 1,1,0.00,1,1.0000
	 15,	 33,'BL', 0.03800, 0.12440, 0.03194,0.00000,0.00000,0.00000,0.0000,0.0000,0.0000,0.0000, 1,1,0.00,1,1.0000
	 19,	 34,'BL', 0.07520, 0.24700, 0.06320,0.00000,0.00000,0.00000,0.0000,0.0000,0.0000,0.0000, 1,1,0.00,1,1.0000
	 35,	 36,'BL', 0.00224, 0.01020, 0.00268,0.00000,0.00000,0.00000,0.0000,0.0000,0.0000,0.0000, 1,1,0.00,1,1.0000
	 35,	 37,'BL', 0.01100, 0.04970, 0.01318,0.00000,0.00000,0.00000,0.0000,0.0000,0.0000,0.0000, 1,1,0.00,1,1.0000
	 33,	 37,'BL', 0.04150, 0.14200, 0.03660,0.00000,0.00000,0.00000,0.0000,0.0000,0.0000,0.0000, 1,1,0.00,1,1.0000
	 34,	 36,'BL', 0.00871, 0.02680, 0.00568,0.00000,0.00000,0.00000,0.0000,0.0000,0.0000,0.0000, 1,1,0.00,1,1.0000
	 34,	 37,'BL', 0.00256, 0.00940, 0.00984,0.00000,0.00000,0.00000,0.0000,0.0000,0.0000,0.0000, 1,1,0.00,1,1.0000
	 38,	 37,'BL', 0.00000, 0.03750, 0.00000,0.00000,0.00000,0.00000,0.0000,0.0000,0.0000,0.0000, 1,1,0.00,1,1.0000
	 37,	 39,'BL', 0.03210, 0.10600, 0.02700,0.00000,0.00000,0.00000,0.0000,0.0000,0.0000,0.0000, 1,1,0.00,1,1.0000
	 37,	 40,'BL', 0.05930, 0.16800, 0.04200,0.00000,0.00000,0.00000,0.0000,0.0000,0.0000,0.0000, 1,1,0.00,1,1.0000
	 30,	 38,'BL', 0.00464, 0.05400, 0.42200,0.00000,0.00000,0.00000,0.0000,0.0000,0.0000,0.0000, 1,1,0.00,1,1.0000
	 39,	 40,'BL', 0.01840, 0.06050, 0.01552,0.00000,0.00000,0.00000,0.0000,0.0000,0.0000,0.0000, 1,1,0.00,1,1.0000
	 40,	 41,'BL', 0.01450, 0.04870, 0.01222,0.00000,0.00000,0.00000,0.0000,0.0000,0.0000,0.0000, 1,1,0.00,1,1.0000
	 40,	 42,'BL', 0.05550, 0.18300, 0.04660,0.00000,0.00000,0.00000,0.0000,0.0000,0.0000,0.0000, 1,1,0.00,1,1.0000
	 41,	 42,'BL', 0.04100, 0.13500, 0.03440,0.00000,0.00000,0.00000,0.0000,0.0000,0.0000,0.0000, 1,1,0.00,1,1.0000
	 43,	 44,'BL', 0.06080, 0.24540, 0.06068,0.00000,0.00000,0.00000,0.0000,0.0000,0.0000,0.0000, 1,1,0.00,1,1.0000
	 34,	 43,'BL', 0.04130, 0.16810, 0.04226,0.00000,0.00000,0.00000,0.0000,0.0000,0.0000,0.0000, 1,1,0.00,1,1.0000
	 44,	 45,'BL', 0.02240, 0.09010, 0.02240,0.00000,0.00000,0.00000,0.0000,0.0000,0.0000,0.0000, 1,1,0.00,1,1.0000
	 45,	 46,'BL', 0.04000, 0.13560, 0.03320,0.00000,0.00000,0.00000,0.0000,0.0000,0.0000,0.0000, 1,1,0.00,1,1.0000
	 46,	 47,'BL', 0.03800, 0.12700, 0.03160,0.00000,0.00000,0.00000,0.0000,0.0000,0.0000,0.0000, 1,1,0.00,1,1.0000
	 46,	 48,'BL', 0.06010, 0.18900, 0.04720,0.00000,0.00000,0.00000,0.0000,0.0000,0.0000,0.0000, 1,1,0.00,1,1.0000
	 47,	 49,'BL', 0.01910, 0.06250, 0.01604,0.00000,0.00000,0.00000,0.0000,0.0000,0.0000,0.0000, 1,1,0.00,1,1.0000
	 42,	 49,'BL', 0.07150, 0.32300, 0.08600,0.00000,0.00000,0.00000,0.0000,0.0000,0.0000,0.0000, 1,1,0.00,1,1.0000
	 42,	 49,'BL', 0.07150, 0.32300, 0.08600,0.00000,0.00000,0.00000,0.0000,0.0000,0.0000,0.0000, 1,1,0.00,1,1.0000
	 45,	 49,'BL', 0.06840, 0.18600, 0.04440,0.00000,0.00000,0.00000,0.0000,0.0000,0.0000,0.0000, 1,1,0.00,1,1.0000
	 48,	 49,'BL', 0.01790, 0.05050, 0.01258,0.00000,0.00000,0.00000,0.0000,0.0000,0.0000,0.0000, 1,1,0.00,1,1.0000
	 49,	 50,'BL', 0.02670, 0.07520, 0.01874,0.00000,0.00000,0.00000,0.0000,0.0000,0.0000,0.0000, 1,1,0.00,1,1.0000
	 49,	 51,'BL', 0.04860, 0.13700, 0.03420,0.00000,0.00000,0.00000,0.0000,0.0000,0.0000,0.0000, 1,1,0.00,1,1.0000
	 51,	 52,'BL', 0.02030, 0.05880, 0.01396,0.00000,0.00000,0.00000,0.0000,0.0000,0.0000,0.0000, 1,1,0.00,1,1.0000
	 52,	 53,'BL', 0.04050, 0.16350, 0.04058,0.00000,0.00000,0.00000,0.0000,0.0000,0.0000,0.0000, 1,1,0.00,1,1.0000
	 53,	 54,'BL', 0.02630, 0.12200, 0.03100,0.00000,0.00000,0.00000,0.0000,0.0000,0.0000,0.0000, 1,1,0.00,1,1.0000
	 49,	 54,'BL', 0.07300, 0.28900, 0.07380,0.00000,0.00000,0.00000,0.0000,0.0000,0.0000,0.0000, 1,1,0.00,1,1.0000
	 49,	 54,'BL', 0.08690, 0.29100, 0.07300,0.00000,0.00000,0.00000,0.0000,0.0000,0.0000,0.0000, 1,1,0.00,1,1.0000
	 54,	 55,'BL', 0.01690, 0.07070, 0.02020,0.00000,0.00000,0.00000,0.0000,0.0000,0.0000,0.0000, 1,1,0.00,1,1.0000
	 54,	 56,'BL', 0.00275, 0.00955, 0.00732,0.00000,0.00000,0.00000,0.0000,0.0000,0.0000,0.0000, 1,1,0.00,1,1.0000
	 55,	 56,'BL', 0.00488, 0.01510, 0.00374,0.00000,0.00000,0.00000,0.0000,0.0000,0.0000,0.0000, 1,1,0.00,1,1.0000
	 56,	 57,'BL', 0.03430, 0.09660, 0.02420,0.00000,0.00000,0.00000,0.0000,0.0000,0.0000,0.0000, 1,1,0.00,1,1.0000
	 50,	 57,'BL', 0.04740, 0.13400, 0.03320,0.00000,0.00000,0.00000,0.0000,0.0000,0.0000,0.0000, 1,1,0.00,1,1.0000
	 56,	 58,'BL', 0.03430, 0.09660, 0.02420,0.00000,0.00000,0.00000,0.0000,0.0000,0.0000,0.0000, 1,1,0.00,1,1.0000
	 51,	 58,'BL', 0.02550, 0.07190, 0.01788,0.00000,0.00000,0.00000,0.0000,0.0000,0.0000,0.0000, 1,1,0.00,1,1.0000
	 54,	 59,'BL', 0.05030, 0.22930, 0.05980,0.00000,0.00000,0.00000,0.0000,0.0000,0.0000,0.0000, 1,1,0.00,1,1.0000
	 56,	 59,'BL', 0.08250, 0.25100, 0.05690,0.00000,0.00000,0.00000,0.0000,0.0000,0.0000,0.0000, 1,1,0.00,1,1.0000
	 56,	 59,'BL', 0.08030, 0.23900, 0.05360,0.00000,0.00000,0.00000,0.0000,0.0000,0.0000,0.0000, 1,1,0.00,1,1.0000
	 55,	 59,'BL', 0.04739, 0.21580, 0.05646,0.00000,0.00000,0.00000,0.0000,0.0000,0.0000,0.0000, 1,1,0.00,1,1.0000
	 59,	 60,'BL', 0.03170, 0.14500, 0.03760,0.00000,0.00000,0.00000,0.0000,0.0000,0.0000,0.0000, 1,1,0.00,1,1.0000
	 59,	 61,'BL', 0.03280, 0.15000, 0.03880,0.00000,0.00000,0.00000,0.0000,0.0000,0.0000,0.0000, 1,1,0.00,1,1.0000
	 60,	 61,'BL', 0.00264, 0.01350, 0.01456,0.00000,0.00000,0.00000,0.0000,0.0000,0.0000,0.0000, 1,1,0.00,1,1.0000
	 60,	 62,'BL', 0.01230, 0.05610, 0.01468,0.00000,0.00000,0.00000,0.0000,0.0000,0.0000,0.0000, 1,1,0.00,1,1.0000
	 61,	 62,'BL', 0.00824, 0.03760, 0.00980,0.00000,0.00000,0.00000,0.0000,0.0000,0.0000,0.0000, 1,1,0.00,1,1.0000
	 63,	 59,'BL', 0.00000, 0.03860, 0.00000,0.00000,0.00000,0.00000,0.0000,0.0000,0.0000,0.0000, 1,1,0.00,1,1.0000
	 63,	 64,'BL', 0.00172, 0.02000, 0.21600,0.00000,0.00000,0.00000,0.0000,0.0000,0.0000,0.0000, 1,1,0.00,1,1.0000
	 64,	 61,'BL', 0.00000, 0.02680, 0.00000,0.00000,0.00000,0.00000,0.0000,0.0000,0.0000,0.0000, 1,1,0.00,1,1.0000
	 38,	 65,'BL', 0.00901, 0.09860, 1.04600,0.00000,0.00000,0.00000,0.0000,0.0000,0.0000,0.0000, 1,1,0.00,1,1.0000
	 64,	 65,'BL', 0.00269, 0.03020, 0.38000,0.00000,0.00000,0.00000,0.0000,0.0000,0.0000,0.0000, 1,1,0.00,1,1.0000
	 49,	 66,'BL', 0.01800, 0.09190, 0.02480,0.00000,0.00000,0.00000,0.0000,0.0000,0.0000,0.0000, 1,1,0.00,1,1.0000
	 49,	 66,'BL', 0.01800, 0.09190, 0.02480,0.00000,0.00000,0.00000,0.0000,0.0000,0.0000,0.0000, 1,1,0.00,1,1.0000
	 62,	 66,'BL', 0.04820, 0.21800, 0.05780,0.00000,0.00000,0.00000,0.0000,0.0000,0.0000,0.0000, 1,1,0.00,1,1.0000
	 62,	 67,'BL', 0.02580, 0.11700, 0.03100,0.00000,0.00000,0.00000,0.0000,0.0000,0.0000,0.0000, 1,1,0.00,1,1.0000
	 65,	 66,'BL', 0.00000, 0.03700, 0.00000,0.00000,0.00000,0.00000,0.0000,0.0000,0.0000,0.0000, 1,1,0.00,1,1.0000
	 66,	 67,'BL', 0.02240, 0.10150, 0.02682,0.00000,0.00000,0.00000,0.0000,0.0000,0.0000,0.0000, 1,1,0.00,1,1.0000
	 65,	 68,'BL', 0.00138, 0.01600, 0.63800,0.00000,0.00000,0.00000,0.0000,0.0000,0.0000,0.0000, 1,1,0.00,1,1.0000
	 47,	 69,'BL', 0.08440, 0.27780, 0.07092,0.00000,0.00000,0.00000,0.0000,0.0000,0.0000,0.0000, 1,1,0.00,1,1.0000
	 49,	 69,'BL', 0.09850, 0.32400, 0.08280,0.00000,0.00000,0.00000,0.0000,0.0000,0.0000,0.0000, 1,1,0.00,1,1.0000
	 68,	 69,'BL', 0.00000, 0.03700, 0.00000,0.00000,0.00000,0.00000,0.0000,0.0000,0.0000,0.0000, 1,1,0.00,1,1.0000
	 69,	 70,'BL', 0.03000, 0.12700, 0.12200,0.00000,0.00000,0.00000,0.0000,0.0000,0.0000,0.0000, 1,1,0.00,1,1.0000
	 24,	 70,'BL', 0.00221, 0.41150, 0.10198,0.00000,0.00000,0.00000,0.0000,0.0000,0.0000,0.0000, 1,1,0.00,1,1.0000
	 70,	 71,'BL', 0.00882, 0.03550, 0.00878,0.00000,0.00000,0.00000,0.0000,0.0000,0.0000,0.0000, 1,1,0.00,1,1.0000
	 24,	 72,'BL', 0.04880, 0.19600, 0.04880,0.00000,0.00000,0.00000,0.0000,0.0000,0.0000,0.0000, 1,1,0.00,1,1.0000
	 71,	 72,'BL', 0.04460, 0.18000, 0.04444,0.00000,0.00000,0.00000,0.0000,0.0000,0.0000,0.0000, 1,1,0.00,1,1.0000
	 71,	 73,'BL', 0.00866, 0.04540, 0.01178,0.00000,0.00000,0.00000,0.0000,0.0000,0.0000,0.0000, 1,1,0.00,1,1.0000
	 70,	 74,'BL', 0.04010, 0.13230, 0.03368,0.00000,0.00000,0.00000,0.0000,0.0000,0.0000,0.0000, 1,1,0.00,1,1.0000
	 70,	 75,'BL', 0.04280, 0.14100, 0.03600,0.00000,0.00000,0.00000,0.0000,0.0000,0.0000,0.0000, 1,1,0.00,1,1.0000
	 69,	 75,'BL', 0.04050, 0.12200, 0.12400,0.00000,0.00000,0.00000,0.0000,0.0000,0.0000,0.0000, 1,1,0.00,1,1.0000
	 74,	 75,'BL', 0.01230, 0.04060, 0.01034,0.00000,0.00000,0.00000,0.0000,0.0000,0.0000,0.0000, 1,1,0.00,1,1.0000
	 76,	 77,'BL', 0.04440, 0.14800, 0.03680,0.00000,0.00000,0.00000,0.0000,0.0000,0.0000,0.0000, 1,1,0.00,1,1.0000
	 69,	 77,'BL', 0.03090, 0.10100, 0.10380,0.00000,0.00000,0.00000,0.0000,0.0000,0.0000,0.0000, 1,1,0.00,1,1.0000
	 75,	 77,'BL', 0.06010, 0.19990, 0.04978,0.00000,0.00000,0.00000,0.0000,0.0000,0.0000,0.0000, 1,1,0.00,1,1.0000
	 77,	 78,'BL', 0.00376, 0.01240, 0.01264,0.00000,0.00000,0.00000,0.0000,0.0000,0.0000,0.0000, 1,1,0.00,1,1.0000
	 78,	 79,'BL', 0.00546, 0.02440, 0.00648,0.00000,0.00000,0.00000,0.0000,0.0000,0.0000,0.0000, 1,1,0.00,1,1.0000
	 77,	 80,'BL', 0.01700, 0.04850, 0.04720,0.00000,0.00000,0.00000,0.0000,0.0000,0.0000,0.0000, 1,1,0.00,1,1.0000
	 77,	 80,'BL', 0.02940, 0.10500, 0.02280,0.00000,0.00000,0.00000,0.0000,0.0000,0.0000,0.0000, 1,1,0.00,1,1.0000
	 79,	 80,'BL', 0.01560, 0.07040, 0.01870,0.00000,0.00000,0.00000,0.0000,0.0000,0.0000,0.0000, 1,1,0.00,1,1.0000
	 68,	 81,'BL', 0.00175, 0.02020, 0.80800,0.00000,0.00000,0.00000,0.0000,0.0000,0.0000,0.0000, 1,1,0.00,1,1.0000
	 81,	 80,'BL', 0.00000, 0.03700, 0.00000,0.00000,0.00000,0.00000,0.0000,0.0000,0.0000,0.0000, 1,1,0.00,1,1.0000
	 77,	 82,'BL', 0.02980, 0.08530, 0.08174,0.00000,0.00000,0.00000,0.0000,0.0000,0.0000,0.0000, 1,1,0.00,1,1.0000
	 82,	 83,'BL', 0.01120, 0.03665, 0.03796,0.00000,0.00000,0.00000,0.0000,0.0000,0.0000,0.0000, 1,1,0.00,1,1.0000
	 83,	 84,'BL', 0.06250, 0.13200, 0.02580,0.00000,0.00000,0.00000,0.0000,0.0000,0.0000,0.0000, 1,1,0.00,1,1.0000
	 83,	 85,'BL', 0.04300, 0.14800, 0.03480,0.00000,0.00000,0.00000,0.0000,0.0000,0.0000,0.0000, 1,1,0.00,1,1.0000
	 84,	 85,'BL', 0.03020, 0.06410, 0.01234,0.00000,0.00000,0.00000,0.0000,0.0000,0.0000,0.0000, 1,1,0.00,1,1.0000
	 85,	 86,'BL', 0.03500, 0.12300, 0.02760,0.00000,0.00000,0.00000,0.0000,0.0000,0.0000,0.0000, 1,1,0.00,1,1.0000
	 86,	 87,'BL', 0.02828, 0.20740, 0.04450,0.00000,0.00000,0.00000,0.0000,0.0000,0.0000,0.0000, 1,1,0.00,1,1.0000
	 85,	 88,'BL', 0.02000, 0.10200, 0.02760,0.00000,0.00000,0.00000,0.0000,0.0000,0.0000,0.0000, 1,1,0.00,1,1.0000
	 85,	 89,'BL', 0.02390, 0.17300, 0.04700,0.00000,0.00000,0.00000,0.0000,0.0000,0.0000,0.0000, 1,1,0.00,1,1.0000
	 88,	 89,'BL', 0.01390, 0.07120, 0.01934,0.00000,0.00000,0.00000,0.0000,0.0000,0.0000,0.0000, 1,1,0.00,1,1.0000
	 89,	 90,'BL', 0.05180, 0.18800, 0.05280,0.00000,0.00000,0.00000,0.0000,0.0000,0.0000,0.0000, 1,1,0.00,1,1.0000
	 89,	 90,'BL', 0.02380, 0.09970, 0.10600,0.00000,0.00000,0.00000,0.0000,0.0000,0.0000,0.0000, 1,1,0.00,1,1.0000
	 90,	 91,'BL', 0.02540, 0.08360, 0.02140,0.00000,0.00000,0.00000,0.0000,0.0000,0.0000,0.0000, 1,1,0.00,1,1.0000
	 89,	 92,'BL', 0.00990, 0.05050, 0.05480,0.00000,0.00000,0.00000,0.0000,0.0000,0.0000,0.0000, 1,1,0.00,1,1.0000
	 89,	 92,'BL', 0.03930, 0.15810, 0.04140,0.00000,0.00000,0.00000,0.0000,0.0000,0.0000,0.0000, 1,1,0.00,1,1.0000
	 91,	 92,'BL', 0.03870, 0.12720, 0.03268,0.00000,0.00000,0.00000,0.0000,0.0000,0.0000,0.0000, 1,1,0.00,1,1.0000
	 92,	 93,'BL', 0.02580, 0.08480, 0.02180,0.00000,0.00000,0.00000,0.0000,0.0000,0.0000,0.0000, 1,1,0.00,1,1.0000
	 92,	 94,'BL', 0.04810, 0.15800, 0.04060,0.00000,0.00000,0.00000,0.0000,0.0000,0.0000,0.0000, 1,1,0.00,1,1.0000
	 93,	 94,'BL', 0.02230, 0.07320, 0.01876,0.00000,0.00000,0.00000,0.0000,0.0000,0.0000,0.0000, 1,1,0.00,1,1.0000
	 94,	 95,'BL', 0.01320, 0.04340, 0.01110,0.00000,0.00000,0.00000,0.0000,0.0000,0.0000,0.0000, 1,1,0.00,1,1.0000
	 80,	 96,'BL', 0.03560, 0.18200, 0.04940,0.00000,0.00000,0.00000,0.0000,0.0000,0.0000,0.0000, 1,1,0.00,1,1.0000
	 82,	 96,'BL', 0.01620, 0.05300, 0.05440,0.00000,0.00000,0.00000,0.0000,0.0000,0.0000,0.0000, 1,1,0.00,1,1.0000
	 94,	 96,'BL', 0.02690, 0.08690, 0.02300,0.00000,0.00000,0.00000,0.0000,0.0000,0.0000,0.0000, 1,1,0.00,1,1.0000
	 80,	 97,'BL', 0.01830, 0.09340, 0.02540,0.00000,0.00000,0.00000,0.0000,0.0000,0.0000,0.0000, 1,1,0.00,1,1.0000
	 80,	 98,'BL', 0.02380, 0.10800, 0.02860,0.00000,0.00000,0.00000,0.0000,0.0000,0.0000,0.0000, 1,1,0.00,1,1.0000
	 80,	 99,'BL', 0.04540, 0.20600, 0.05460,0.00000,0.00000,0.00000,0.0000,0.0000,0.0000,0.0000, 1,1,0.00,1,1.0000
	 92,	100,'BL', 0.06480, 0.29500, 0.04720,0.00000,0.00000,0.00000,0.0000,0.0000,0.0000,0.0000, 1,1,0.00,1,1.0000
	 94,	100,'BL', 0.01780, 0.05800, 0.06040,0.00000,0.00000,0.00000,0.0000,0.0000,0.0000,0.0000, 1,1,0.00,1,1.0000
	 95,	 96,'BL', 0.01710, 0.05470, 0.01474,0.00000,0.00000,0.00000,0.0000,0.0000,0.0000,0.0000, 1,1,0.00,1,1.0000
	 96,	 97,'BL', 0.01730, 0.08850, 0.02400,0.00000,0.00000,0.00000,0.0000,0.0000,0.0000,0.0000, 1,1,0.00,1,1.0000
	 98,	100,'BL', 0.03970, 0.17900, 0.04760,0.00000,0.00000,0.00000,0.0000,0.0000,0.0000,0.0000, 1,1,0.00,1,1.0000
	 99,	100,'BL', 0.01800, 0.08130, 0.02160,0.00000,0.00000,0.00000,0.0000,0.0000,0.0000,0.0000, 1,1,0.00,1,1.0000
	100,	101,'BL', 0.02770, 0.12620, 0.03280,0.00000,0.00000,0.00000,0.0000,0.0000,0.0000,0.0000, 1,1,0.00,1,1.0000
	 92,	102,'BL', 0.01230, 0.05590, 0.01464,0.00000,0.00000,0.00000,0.0000,0.0000,0.0000,0.0000, 1,1,0.00,1,1.0000
	101,	102,'BL', 0.02460, 0.11200, 0.02940,0.00000,0.00000,0.00000,0.0000,0.0000,0.0000,0.0000, 1,1,0.00,1,1.0000
	100,	103,'BL', 0.01600, 0.05250, 0.05360,0.00000,0.00000,0.00000,0.0000,0.0000,0.0000,0.0000, 1,1,0.00,1,1.0000
	100,	104,'BL', 0.04510, 0.20400, 0.05410,0.00000,0.00000,0.00000,0.0000,0.0000,0.0000,0.0000, 1,1,0.00,1,1.0000
	103,	104,'BL', 0.04660, 0.15840, 0.04070,0.00000,0.00000,0.00000,0.0000,0.0000,0.0000,0.0000, 1,1,0.00,1,1.0000
	103,	105,'BL', 0.05350, 0.16250, 0.04080,0.00000,0.00000,0.00000,0.0000,0.0000,0.0000,0.0000, 1,1,0.00,1,1.0000
	100,	106,'BL', 0.06050, 0.22900, 0.06200,0.00000,0.00000,0.00000,0.0000,0.0000,0.0000,0.0000, 1,1,0.00,1,1.0000
	104,	105,'BL', 0.00994, 0.03780, 0.00986,0.00000,0.00000,0.00000,0.0000,0.0000,0.0000,0.0000, 1,1,0.00,1,1.0000
	105,	106,'BL', 0.01400, 0.05470, 0.01434,0.00000,0.00000,0.00000,0.0000,0.0000,0.0000,0.0000, 1,1,0.00,1,1.0000
	105,	107,'BL', 0.05300, 0.18300, 0.04720,0.00000,0.00000,0.00000,0.0000,0.0000,0.0000,0.0000, 1,1,0.00,1,1.0000
	105,	108,'BL', 0.02610, 0.07030, 0.01844,0.00000,0.00000,0.00000,0.0000,0.0000,0.0000,0.0000, 1,1,0.00,1,1.0000
	106,	107,'BL', 0.05300, 0.18300, 0.04720,0.00000,0.00000,0.00000,0.0000,0.0000,0.0000,0.0000, 1,1,0.00,1,1.0000
	108,	109,'BL', 0.01050, 0.02880, 0.00760,0.00000,0.00000,0.00000,0.0000,0.0000,0.0000,0.0000, 1,1,0.00,1,1.0000
	103,	110,'BL', 0.03906, 0.18130, 0.04610,0.00000,0.00000,0.00000,0.0000,0.0000,0.0000,0.0000, 1,1,0.00,1,1.0000
	109,	110,'BL', 0.02780, 0.07620, 0.02020,0.00000,0.00000,0.00000,0.0000,0.0000,0.0000,0.0000, 1,1,0.00,1,1.0000
	110,	111,'BL', 0.02200, 0.07550, 0.02000,0.00000,0.00000,0.00000,0.0000,0.0000,0.0000,0.0000, 1,1,0.00,1,1.0000
	110,	112,'BL', 0.02470, 0.06400, 0.06200,0.00000,0.00000,0.00000,0.0000,0.0000,0.0000,0.0000, 1,1,0.00,1,1.0000
	 17,	113,'BL', 0.00913, 0.03010, 0.00768,0.00000,0.00000,0.00000,0.0000,0.0000,0.0000,0.0000, 1,1,0.00,1,1.0000
	 32,	113,'BL', 0.06150, 0.20300, 0.05180,0.00000,0.00000,0.00000,0.0000,0.0000,0.0000,0.0000, 1,1,0.00,1,1.0000
	 32,	114,'BL', 0.01350, 0.06120, 0.01628,0.00000,0.00000,0.00000,0.0000,0.0000,0.0000,0.0000, 1,1,0.00,1,1.0000
	 27,	115,'BL', 0.01640, 0.07410, 0.01972,0.00000,0.00000,0.00000,0.0000,0.0000,0.0000,0.0000, 1,1,0.00,1,1.0000
	114,	115,'BL', 0.00230, 0.01040, 0.00276,0.00000,0.00000,0.00000,0.0000,0.0000,0.0000,0.0000, 1,1,0.00,1,1.0000
	 68,	116,'BL', 0.00034, 0.00405, 0.16400,0.00000,0.00000,0.00000,0.0000,0.0000,0.0000,0.0000, 1,1,0.00,1,1.0000
	 12,	117,'BL', 0.03290, 0.14000, 0.03580,0.00000,0.00000,0.00000,0.0000,0.0000,0.0000,0.0000, 1,1,0.00,1,1.0000
	 75,	118,'BL', 0.01450, 0.04810, 0.01198,0.00000,0.00000,0.00000,0.0000,0.0000,0.0000,0.0000, 1,1,0.00,1,1.0000
	 76,	118,'BL', 0.01640, 0.05440, 0.01356,0.00000,0.00000,0.00000,0.0000,0.0000,0.0000,0.0000, 1,1,0.00,1,1.0000
0 / END OF BRANCH DATA, BEGIN TRANSFORMER DATA
0 / END OF TRANSFORMER DATA, BEGIN AREA DATA
	  1,	  0,	 0.0,  3.000,'			'
0 / END OF AREA DATA, BEGIN TWO-TERMINAL DC DATA
0 / END OF TWO-TERMINAL DC DATA, BEGIN VSC DC LINE DATA
0 / END OF VSC DC LINE DATA, BEGIN IMPEDANCE CORRECTION DATA
0 / END OF IMPEDANCE CORRECTION DATA, BEGIN MULTI-TERMINAL DC DATA
0 / END OF MULTI-TERMINAL DC DATA, BEGIN MULTI-SECTION LINE DATA
0 / END OF MULTI-SECTION LINE DATA, BEGIN ZONE DATA
	2,'ZONE_2	  '
0 / END OF ZONE DATA, BEGIN INTER-AREA TRANSFER DATA
	2,	1,'1 ',	0.00
0 / END OF INTER-AREA TRANSFER DATA, BEGIN OWNER DATA
	1,'OWNER_1	 '
0 / END OF OWNER DATA, BEGIN FACTS DEVICE DATA
0 / END OF FACTS DEVICE DATA, BEGING SWITCHED SHUNT DATA
0 / END OF SWITCHED SHUNT DATA, BEGIN GNE DATA
0 / END OF GNE DATA, BEGIN INDUCTION MACHINE DATA
0 / END OF INDUCTION MACHINE DATA
Q
